electric-grid/synthetic/sc500/SouthCarolina500.epc
title
!
comments
!
solution parameters
tap    1    tcul  enabled/disabled
phas   1    ps    enabled/disabled
area   1    area  enabled/disabled
svd    1    svd   enabled/disabled
dctap  1    dc    enabled/disabled
gcd    0    gcd   enabled/disabled
jump  0.000200    jumper threshold
toler   0.1000    newton tolerance
sbase 100.0000    system mva base
!
substation data  [  208]           no  name
      1  "WINNSBORO"    : 34.366465 -81.093684
      2  "COLUMBIA 11"    : 34.139526 -80.888209
      3  "SMYRNA"    : 35.011187 -81.386674
      4  "EASTOVER 2"    : 33.826400 -80.622800
      5  "CHAPPELLS 2"    : 34.189937 -81.867693
      6  "PELZER"    : 34.639372 -82.413576
      7  "SENECA 3"    : 34.793900 -82.898600
      8  "MONETTA"    : 33.807397 -81.593640
      9  "LEXINGTON 2"    : 34.001778 -81.272410
     10  "WELLFORD"    : 34.930634 -82.095061
     11  "LAURENS"    : 34.498634 -82.050627
     12  "COLUMBIA 10"    : 33.926751 -80.950364
     13  "WINDSOR"    : 33.484137 -81.509942
     14  "PROSPERITY"    : 34.153252 -81.512463
     15  "NORTH AUGUST"    : 33.614687 -81.984429
     16  "LANDO"    : 34.773948 -81.011121
     17  "GAFFNEY 3"    : 35.113676 -81.714522
     18  "CLARKS HILL "    : 33.643047 -82.107049
     19  "JENKINSVILLE"    : 34.285140 -81.296583
     20  "WOODRUFF"    : 34.764315 -82.044633
     21  "IVA"    : 34.257200 -82.609700
     22  "CAYCE"    : 33.953426 -81.057439
     23  "TROY"    : 33.970417 -82.075911
     24  "SIMPSONVILLE"    : 34.767679 -82.225003
     25  "MAYO"    : 35.081579 -81.863411
     26  "BELTON 2"    : 34.103056 -80.790556
     27  "BRADLEY"    : 34.044227 -82.227378
     28  "ENOREE"    : 34.646690 -81.904455
     29  "HONEA PATH 2"    : 34.527475 -82.374964
     30  "SPRINGFIELD"    : 33.508249 -81.295412
     31  "EDGEMOOR"    : 34.797966 -80.975531
     32  "NEWRY"    : 34.725435 -82.913642
     33  "CLARKS HILL "    : 33.660200 -82.196100
     34  "NEWBERRY"    : 34.305524 -81.627342
     35  "AIKEN 3"    : 33.646054 -81.604486
     36  "ROCK HILL 3"    : 34.939585 -81.031961
     37  "CAMERON"    : 33.576312 -80.647573
     38  "SENECA 2"    : 34.635217 -82.939747
     39  "BLAIR"    : 34.437442 -81.330125
     40  "WALHALLA"    : 34.782583 -83.083166
     41  "ANDERSON 4"    : 34.460802 -82.756514
     42  "PACOLET"    : 34.901747 -81.711273
     43  "ABBEVILLE"    : 34.182424 -82.425604
     44  "AIKEN 2"    : 33.588993 -81.697037
     45  "JOHNSTON"    : 33.838994 -81.803656
     46  "SPARTANBURG "    : 34.892662 -81.921576
     47  "GAFFNEY 2"    : 34.972033 -81.585721
     48  "LEESVILLE"    : 33.916116 -81.453057
     49  "LANGLEY"    : 33.512930 -81.856747
     50  "DONALDS"    : 34.363867 -82.338204
     51  "GREENVILLE 7"    : 34.847112 -82.402264
     52  "COLUMBIA 9"    : 34.026415 -80.958995
     53  "SALEM 3"    : 35.007500 -82.997500
     54  "GREENVILLE 6"    : 34.774425 -82.376610
     55  "COWPENS"    : 35.052613 -81.804142
     56  "WESTMINSTER "    : 34.646708 -83.146844
     57  "SAINT MATTHE"    : 33.692181 -80.787131
     58  "GREENWOOD 2"    : 34.238919 -82.145019
     59  "FINGERVILLE"    : 35.135513 -82.001598
     60  "ROCK HILL 2"    : 34.971373 -81.081285
     61  "YORK 2"    : 35.051400 -81.069400
     62  "CHAPIN"    : 34.134004 -81.339914
     63  "MODOC"    : 33.746791 -82.150948
     64  "SPARTANBURG "    : 34.934028 -82.010697
     65  "BOILING SPRI"    : 35.043045 -81.975107
     66  "GREENVILLE 5"    : 34.856825 -82.296139
     67  "PELION"    : 33.764652 -81.271451
     68  "GRANITEVILLE"    : 33.574691 -81.857801
     69  "IRMO"    : 34.142131 -81.206184
     70  "SALEM 2"    : 34.959400 -82.914700
     71  "WEST UNION"    : 34.780070 -83.008840
     72  "CROSS HILL"    : 34.373805 -81.963361
     73  "FORT LAWN"    : 34.712239 -80.915313
     74  "NORTH"    : 33.626435 -81.079954
     75  "ANDERSON 3"    : 34.559027 -82.763452
     76  "BLACKSBURG 2"    : 35.116068 -81.473073
     77  "LIBERTY"    : 34.767088 -82.686571
     78  "ELLOREE"    : 33.532715 -80.585847
     79  "WAGENER"    : 33.662168 -81.416471
     80  "TRENTON"    : 33.694096 -81.852760
     81  "BATESBURG"    : 33.869101 -81.551078
     82  "COLUMBIA 8"    : 34.055600 -81.217200
     83  "LITTLE MOUNT"    : 34.218134 -81.299071
     84  "CLINTON"    : 34.421034 -81.808045
     85  "WARRENVILLE"    : 33.522812 -81.828197
     86  "SIMPSONVILLE"    : 34.685122 -82.288811
     87  "DUNCAN"    : 34.861302 -82.113804
     88  "NORTH AUGUST"    : 33.526407 -81.939337
     89  "GREENWOOD 1"    : 34.136053 -82.148470
     90  "BELTON 1"    : 34.517279 -82.476617
     91  "VAUCLUSE"    : 33.609668 -81.816976
     92  "UNION 3"    : 34.664200 -81.448600
     93  "MOUNTAIN RES"    : 34.860889 -83.157553
     94  "PICKENS"    : 34.934777 -82.728691
     95  "WESTMINSTER "    : 34.436400 -83.046400
     96  "WEST COLUMBI"    : 33.937674 -81.147203
     97  "WARD"    : 33.901804 -81.705740
     98  "MOORE"    : 34.865620 -82.019463
     99  "WILLISTON"    : 33.403217 -81.422629
    100  "COLUMBIA 7"    : 33.990057 -80.997251
    101  "WATERLOO"    : 34.343368 -82.090062
    102  "BLACKSBURG 1"    : 35.159700 -81.430600
    103  "TAYLORS"    : 34.986636 -82.327451
    104  "GREENVILLE 4"    : 34.869400 -82.363900
    105  "SALEM 1"    : 34.950234 -82.982932
    106  "COLUMBIA 6"    : 33.980254 -81.040670
    107  "AIKEN 1"    : 33.418902 -81.692490
    108  "POMARIA"    : 34.328933 -81.419482
    109  "RIDGE SPRING"    : 33.781876 -81.676812
    110  "GAFFNEY 1"    : 35.072700 -81.613000
    111  "COLUMBIA 5"    : 33.993555 -81.031009
    112  "MARIETTA"    : 35.147593 -82.529539
    113  "ANDERSON 2"    : 34.506502 -82.605626
    114  "SALUDA"    : 34.042392 -81.776152
    115  "FAIR PLAY"    : 34.516190 -82.996445
    116  "HOPKINS"    : 33.936526 -80.692350
    117  "SUNSET"    : 34.991238 -82.842298
    118  "SALLEY"    : 33.595632 -81.321382
    119  "EDGEFIELD"    : 33.821285 -81.997605
    120  "BUFFALO"    : 34.714662 -81.741065
    121  "WARE SHOALS"    : 34.412630 -82.219492
    122  "YORK 1"    : 34.965278 -81.187200
    123  "PIEDMONT"    : 34.702021 -82.462102
    124  "CALHOUN FALL"    : 34.007202 -82.521302
    125  "ANDERSON 1"    : 34.435943 -82.624115
    126  "JACKSON"    : 33.297451 -81.799578
    127  "CROSS ANCHOR"    : 34.651836 -81.844085
    128  "HICKORY GROV"    : 34.950733 -81.448844
    129  "GREAT FALLS "    : 34.600000 -80.892800
    130  "COLUMBIA 4"    : 34.091774 -80.966483
    131  "MAULDIN"    : 34.778208 -82.301835
    132  "GREENVILLE 3"    : 34.811726 -82.331435
    133  "COLUMBIA 3"    : 34.046162 -81.106580
    134  "PENDLETON"    : 34.643979 -82.723237
    135  "SPARTANBURG "    : 34.945078 -81.836373
    136  "CONVERSE"    : 34.983686 -81.826635
    137  "BLACKSTOCK"    : 34.523382 -81.114513
    138  "FORT MILL 3"    : 35.048705 -80.987118
    139  "LANDRUM"    : 35.142074 -82.280831
    140  "SILVERSTREET"    : 34.228719 -81.766201
    141  "ORANGEBURG"    : 33.567550 -80.885684
    142  "GREENVILLE 2"    : 34.830934 -82.458497
    143  "CHAPPELLS 1"    : 34.169722 -81.902500
    144  "RIDGEWAY 2"    : 34.331608 -80.880412
    145  "FOUNTAIN INN"    : 34.668477 -82.190059
    146  "STARR"    : 34.379410 -82.718488
    147  "SPARTANBURG "    : 35.001194 -82.130278
    148  "GASTON 2"    : 33.827497 -81.090983
    149  "SIX MILE"    : 34.833946 -82.854386
    150  "SENECA 1"    : 34.751278 -82.934285
    151  "GILBERT"    : 33.941953 -81.383081
    152  "SWANSEA"    : 33.746888 -81.035516
    153  "INMAN"    : 35.069320 -82.071005
    154  "GREAT FALLS "    : 34.574244 -80.914866
    155  "WHITMIRE"    : 34.492522 -81.604974
    156  "GRAY COURT"    : 34.592282 -82.124610
    157  "WILLIAMSTON "    : 34.625593 -82.548639
    158  "CLEMSON"    : 34.679444 -82.840278
    159  "BEECH ISLAND"    : 33.451527 -81.863403
    160  "CLOVER"    : 35.106284 -81.221471
    161  "NINETY SIX"    : 34.113326 -81.979552
    162  "MC CONNELLS"    : 34.860843 -81.236135
    163  "BEECH ISLAND"    : 33.435000 -81.911100
    164  "GADSDEN"    : 33.798397 -80.741126
    165  "TRAVELERS RE"    : 35.029999 -82.494173
    166  "DUE WEST"    : 34.303618 -82.428815
    167  "BLYTHEWOOD"    : 34.202513 -80.996999
    168  "ROCK HILL 1"    : 34.889870 -81.017838
    169  "HODGES"    : 34.306003 -82.232469
    170  "CHESNEE 2"    : 35.110300 -81.967500
    171  "WILLIAMSTON "    : 34.602200 -82.435000
    172  "EASLEY 2"    : 34.775165 -82.563663
    173  "UNION 2"    : 34.682438 -81.608705
    174  "ARCADIA"    : 34.971205 -81.910208
    175  "CATAWBA"    : 34.831891 -80.909786
    176  "GASTON 1"    : 33.869700 -81.017800
    177  "EASTOVER 1"    : 33.887200 -80.639700
    178  "FORT MILL 2"    : 35.009844 -80.928739
    179  "CAMPOBELLO"    : 35.121041 -82.132234
    180  "EASLEY 1"    : 34.883978 -82.579832
    181  "UNION 1"    : 34.722500 -81.646944
    182  "JONESVILLE"    : 34.830743 -81.648605
    183  "CHESNEE 1"    : 35.126341 -81.907463
    184  "NORRIS"    : 34.764792 -82.756690
    185  "CLEVELAND"    : 35.077658 -82.626703
    186  "GREER 2"    : 35.023830 -82.279564
    187  "CENTRAL"    : 34.738673 -82.799161
    188  "SPARTANBURG "    : 34.884446 -81.843603
    189  "LONG CREEK"    : 34.760806 -83.284445
    190  "GREENVILLE 1"    : 34.924566 -82.438736
    191  "PEAK"    : 34.238760 -81.328235
    192  "COLUMBIA 2"    : 34.029148 -81.002526
    193  "ROEBUCK"    : 34.784549 -81.853472
    194  "SHARON"    : 34.762480 -81.470669
    195  "RIDGEWAY 1"    : 34.335500 -80.702100
    196  "WEST COLUMBI"    : 33.912417 -81.076978
    197  "WEST COLUMBI"    : 33.997527 -81.097406
    198  "TOWNVILLE"    : 34.534253 -82.868342
    199  "GREER 1"    : 34.898246 -82.257851
    200  "PLUM BRANCH"    : 33.769606 -82.241925
...
bus data  [500]               ty  vsched   volt     angle    ar zone  vmax   vmin   date_in date_out pid L own st  latitude  longitude island    sdmon   vmax1      vmin1      dvmax subst
      1 "WINNSBORO 0 " 138.0000 " "  0  :  1 1.012170  1.012170  -7.292752    1    2 1.1000 0.9000   400101   391231   0 0   1 0   0.000000   0.000000     0 0    0.00000    0.00000    0.00000 1 "WINNSBORO"     1 -1 " " 
      2 "WINNSBORO 1 " 138.0000 " "  0  :  1 1.011590  1.011590  -7.364558    1    2 1.1000 0.9000   400101   391231   0 0   1 0   0.000000   0.000000     0 0    0.00000    0.00000    0.00000 1 "WINNSBORO"     1 -1 " " 
      3 "COLUMBIA 1~3" 138.0000 " "  0  :  1 1.006237  1.006237  -8.595016    1    2 1.1000 0.9000   400101   391231   0 0   1 0   0.000000   0.000000     0 0    0.00000    0.00000    0.00000 2 "COLUMBIA 11"     1 -1 " " 
      4 "COLUMBIA 1~4" 138.0000 " "  0  :  1 1.004073  1.004073  -8.845873    1    2 1.1000 0.9000   400101   391231   0 0   1 0   0.000000   0.000000     0 0    0.00000    0.00000    0.00000 2 "COLUMBIA 11"     1 -1 " " 
      5 "SMYRNA 0    " 138.0000 " "  0  :  1 1.014866  1.014866  2.141622    1    1 1.1000 0.9000   400101   391231   0 0   1 0   0.000000   0.000000     0 0    0.00000    0.00000    0.00000 3 "SMYRNA"     2 -1 " " 
      6 "SMYRNA 1    " 138.0000 " "  0  :  1 1.014818  1.014818  2.135518    1    1 1.1000 0.9000   400101   391231   0 0   1 0   0.000000   0.000000     0 0    0.00000    0.00000    0.00000 3 "SMYRNA"     2 -1 " " 
      7 "EASTOVER 2 0" 345.0000 " "  0  :  1 1.033869  1.033869  -3.454433    1    2 1.1000 0.9000   400101   391231   0 0   1 0   0.000000   0.000000     0 0    0.00000    0.00000    0.00000 4 "EASTOVER 2"     1 -1 " " 
      8 "EASTOVER 2 1" 138.0000 " "  0  :  1 1.026970  1.026970  -5.235297    1    2 1.1000 0.9000   400101   391231   0 0   1 0   0.000000   0.000000     0 0    0.00000    0.00000    0.00000 4 "EASTOVER 2"     1 -1 " " 
      9 "EASTOVER 2 2"  13.8000 " "  0  :  2 1.040000 1.040000  -0.655940    1    2 1.1000 0.9000   400101   391231   0 0   1 0   0.000000   0.000000     0 0    0.00000    0.00000    0.00000 4 "EASTOVER 2"     1 -1 " " 
     10 "CHAPPELLS ~6" 138.0000 " "  0  :  1 1.016730  1.016730  -10.329334    1    2 1.1000 0.9000   400101   391231   0 0   1 0   0.000000   0.000000     0 0    0.00000    0.00000    0.00000 5 "CHAPPELLS 2"     1 -1 " " 
     11 "CHAPPELLS ~7" 138.0000 " "  0  :  1 1.016693  1.016693  -10.333481    1    2 1.1000 0.9000   400101   391231   0 0   1 0   0.000000   0.000000     0 0    0.00000    0.00000    0.00000 5 "CHAPPELLS 2"     1 -1 " " 
     12 "PELZER 0    " 138.0000 " "  0  :  1 0.991822  0.991822  -11.062240    1    1 1.1000 0.9000   400101   391231   0 0   1 0   0.000000   0.000000     0 0    0.00000    0.00000    0.00000 6 "PELZER"     2 -1 " " 
     13 "PELZER 1    " 138.0000 " "  0  :  1 0.991274  0.991274  -11.126515    1    1 1.1000 0.9000   400101   391231   0 0   1 0   0.000000   0.000000     0 0    0.00000    0.00000    0.00000 6 "PELZER"     2 -1 " " 
     14 "SENECA 3 0  " 345.0000 " "  0  :  1 1.030094  1.030094  0.068827    1    1 1.1000 0.9000   400101   391231   0 0   1 0   0.000000   0.000000     0 0    0.00000    0.00000    0.00000 7 "SENECA 3"     2 -1 " " 
     15 "SENECA 3 1  " 138.0000 " "  0  :  1 1.021390  1.021390  -2.551455    1    1 1.1000 0.9000   400101   391231   0 0   1 0   0.000000   0.000000     0 0    0.00000    0.00000    0.00000 7 "SENECA 3"     2 -1 " " 
     16 "SENECA 3 2  "  13.8000 " "  0  :  2 1.040000 1.040000  2.912436    1    1 1.1000 0.9000   400101   391231   0 0   1 0   0.000000   0.000000     0 0    0.00000    0.00000    0.00000 7 "SENECA 3"     2 -1 " " 
     17 "SENECA 3 3  "  13.8000 " "  0  :  0 1.040000 1.040000  3.474048    1    1 1.1000 0.9000   400101   391231   0 0   1 0   0.000000   0.000000     0 0    0.00000    0.00000    0.00000 7 "SENECA 3"     2 -1 " " 
     18 "SENECA 3 4  "  13.8000 " "  0  :  2 1.040000 1.040000  4.367797    1    1 1.1000 0.9000   400101   391231   0 0   1 0   0.000000   0.000000     0 0    0.00000    0.00000    0.00000 7 "SENECA 3"     2 -1 " " 
     19 "MONETTA 0   " 138.0000 " "  0  :  1 1.018366  1.018366  -10.796902    1    2 1.1000 0.9000   400101   391231   0 0   1 0   0.000000   0.000000     0 0    0.00000    0.00000    0.00000 8 "MONETTA"     1 -1 " " 
     20 "MONETTA 1   " 138.0000 " "  0  :  1 1.018296  1.018296  -10.806292    1    2 1.1000 0.9000   400101   391231   0 0   1 0   0.000000   0.000000     0 0    0.00000    0.00000    0.00000 8 "MONETTA"     1 -1 " " 
     21 "LEXINGTON ~2" 138.0000 " "  0  :  1 1.009542  1.009542  -8.858856    1    2 1.1000 0.9000   400101   391231   0 0   1 0   0.000000   0.000000     0 0    0.00000    0.00000    0.00000 9 "LEXINGTON 2"     1 -1 " " 
     22 "LEXINGTON ~3" 138.0000 " "  0  :  1 1.007416  1.007416  -9.111627    1    2 1.1000 0.9000   400101   391231   0 0   1 0   0.000000   0.000000     0 0    0.00000    0.00000    0.00000 9 "LEXINGTON 2"     1 -1 " " 
     23 "WELLFORD 0  " 345.0000 " "  0  :  1 1.027310  1.027310  -4.460516    1    1 1.1000 0.9000   400101   391231   0 0   1 0   0.000000   0.000000     0 0    0.00000    0.00000    0.00000 10 "WELLFORD"     2 -1 " " 
     24 "WELLFORD 1  " 138.0000 " "  0  :  1 1.012357  1.012357  -7.345727    1    1 1.1000 0.9000   400101   391231   0 0   1 0   0.000000   0.000000     0 0    0.00000    0.00000    0.00000 10 "WELLFORD"     2 -1 " " 
     25 "WELLFORD 2  " 138.0000 " "  0  :  1 1.012322  1.012322  -7.350150    1    1 1.1000 0.9000   400101   391231   0 0   1 0   0.000000   0.000000     0 0    0.00000    0.00000    0.00000 10 "WELLFORD"     2 -1 " " 
     26 "WELLFORD 3  " 138.0000 " "  0  :  1 1.012024  1.012024  -7.389089    1    1 1.1000 0.9000   400101   391231   0 0   1 0   0.000000   0.000000     0 0    0.00000    0.00000    0.00000 10 "WELLFORD"     2 -1 " " 
     27 "LAURENS 0   " 138.0000 " "  0  :  1 1.013231  1.013231  -13.077732    1    1 1.1000 0.9000   400101   391231   0 0   1 0   0.000000   0.000000     0 0    0.00000    0.00000    0.00000 11 "LAURENS"     2 -1 " " 
     28 "LAURENS 1   " 138.0000 " "  0  :  1 1.012145  1.012145  -13.210629    1    1 1.1000 0.9000   400101   391231   0 0   1 0   0.000000   0.000000     0 0    0.00000    0.00000    0.00000 11 "LAURENS"     2 -1 " " 
     29 "COLUMBIA 1~1" 138.0000 " "  0  :  1 1.009443  1.009443  -11.107322    1    2 1.1000 0.9000   400101   391231   0 0   1 0   0.000000   0.000000     0 0    0.00000    0.00000    0.00000 12 "COLUMBIA 10"     1 -1 " " 
     30 "COLUMBIA 1~2" 138.0000 " "  0  :  1 1.007954  1.007954  -11.283761    1    2 1.1000 0.9000   400101   391231   0 0   1 0   0.000000   0.000000     0 0    0.00000    0.00000    0.00000 12 "COLUMBIA 10"     1 -1 " " 
     31 "WINDSOR 0   " 138.0000 " "  0  :  1 1.032465  1.032465  -13.545102    1    2 1.1000 0.9000   400101   391231   0 0   1 0   0.000000   0.000000     0 0    0.00000    0.00000    0.00000 13 "WINDSOR"     1 -1 " " 
     32 "WINDSOR 1   " 138.0000 " "  0  :  1 1.032320  1.032320  -13.562228    1    2 1.1000 0.9000   400101   391231   0 0   1 0   0.000000   0.000000     0 0    0.00000    0.00000    0.00000 13 "WINDSOR"     1 -1 " " 
     33 "PROSPERITY 0" 138.0000 " "  0  :  1 1.006224  1.006224  -11.732164    1    2 1.1000 0.9000   400101   391231   0 0   1 0   0.000000   0.000000     0 0    0.00000    0.00000    0.00000 14 "PROSPERITY"     1 -1 " " 
     34 "PROSPERITY 1" 138.0000 " "  0  :  1 1.005851  1.005851  -11.776277    1    2 1.1000 0.9000   400101   391231   0 0   1 0   0.000000   0.000000     0 0    0.00000    0.00000    0.00000 14 "PROSPERITY"     1 -1 " " 
     35 "NORTH AUGU~3" 138.0000 " "  0  :  1 1.017665  1.017665  -12.374649    1    2 1.1000 0.9000   400101   391231   0 0   1 0   0.000000   0.000000     0 0    0.00000    0.00000    0.00000 15 "NORTH AUGUSTA 2"     1 -1 " " 
     36 "NORTH AUGU~4" 138.0000 " "  0  :  1 1.017072  1.017072  -12.443631    1    2 1.1000 0.9000   400101   391231   0 0   1 0   0.000000   0.000000     0 0    0.00000    0.00000    0.00000 15 "NORTH AUGUSTA 2"     1 -1 " " 
     37 "LANDO 0     " 138.0000 " "  0  :  1 1.019463  1.019463  2.515492    1    1 1.1000 0.9000   400101   391231   0 0   1 0   0.000000   0.000000     0 0    0.00000    0.00000    0.00000 16 "LANDO"     2 -1 " " 
     38 "LANDO 1     " 138.0000 " "  0  :  1 1.019461  1.019461  2.515231    1    1 1.1000 0.9000   400101   391231   0 0   1 0   0.000000   0.000000     0 0    0.00000    0.00000    0.00000 16 "LANDO"     2 -1 " " 
     39 "GAFFNEY 3 0 " 345.0000 " "  0  :  1 1.029549  1.029549  -4.337351    1    1 1.1000 0.9000   400101   391231   0 0   1 0   0.000000   0.000000     0 0    0.00000    0.00000    0.00000 17 "GAFFNEY 3"     2 -1 " " 
     40 "GAFFNEY 3 1 " 138.0000 " "  0  :  1 1.023094  1.023094  -5.544633    1    1 1.1000 0.9000   400101   391231   0 0   1 0   0.000000   0.000000     0 0    0.00000    0.00000    0.00000 17 "GAFFNEY 3"     2 -1 " " 
     41 "GAFFNEY 3 2 " 138.0000 " "  0  :  1 1.022140  1.022140  -5.663918    1    1 1.1000 0.9000   400101   391231   0 0   1 0   0.000000   0.000000     0 0    0.00000    0.00000    0.00000 17 "GAFFNEY 3"     2 -1 " " 
     42 "CLARKS HIL~4" 138.0000 " "  0  :  1 1.024129  1.024129  -10.118250    1    2 1.1000 0.9000   400101   391231   0 0   1 0   0.000000   0.000000     0 0    0.00000    0.00000    0.00000 18 "CLARKS HILL 2"     1 -1 " " 
     43 "CLARKS HIL~5" 138.0000 " "  0  :  1 1.024069  1.024069  -10.125499    1    2 1.1000 0.9000   400101   391231   0 0   1 0   0.000000   0.000000     0 0    0.00000    0.00000    0.00000 18 "CLARKS HILL 2"     1 -1 " " 
     44 "JENKINSVIL~1" 138.0000 " "  0  :  1 1.018351  1.018351  -6.304916    1    2 1.1000 0.9000   400101   391231   0 0   1 0   0.000000   0.000000     0 0    0.00000    0.00000    0.00000 19 "JENKINSVILLE"     1 -1 " " 
     45 "JENKINSVIL~2" 138.0000 " "  0  :  1 1.018317  1.018317  -6.309076    1    2 1.1000 0.9000   400101   391231   0 0   1 0   0.000000   0.000000     0 0    0.00000    0.00000    0.00000 19 "JENKINSVILLE"     1 -1 " " 
     46 "WOODRUFF 0  " 138.0000 " "  0  :  1 1.004168  1.004168  -9.706521    1    1 1.1000 0.9000   400101   391231   0 0   1 0   0.000000   0.000000     0 0    0.00000    0.00000    0.00000 20 "WOODRUFF"     2 -1 " " 
     47 "WOODRUFF 1  " 138.0000 " "  0  :  1 1.003508  1.003508  -9.787813    1    1 1.1000 0.9000   400101   391231   0 0   1 0   0.000000   0.000000     0 0    0.00000    0.00000    0.00000 20 "WOODRUFF"     2 -1 " " 
     48 "IVA 0       " 138.0000 " "  0  :  1 1.000961  1.000961  -14.274961    1    1 1.1000 0.9000   400101   391231   0 0   1 0   0.000000   0.000000     0 0    0.00000    0.00000    0.00000 21 "IVA"     2 -1 " " 
     49 "IVA 1       "  13.8000 " "  0  :  2 1.040000 1.002810  -14.072881    1    1 1.1000 0.9000   400101   391231   0 0   1 0   0.000000   0.000000     0 0    0.00000    0.00000    0.00000 21 "IVA"     2 -1 " " 
     50 "IVA 2       "  13.8000 " "  0  :  2 1.040000 1.003113  -14.037239    1    1 1.1000 0.9000   400101   391231   0 0   1 0   0.000000   0.000000     0 0    0.00000    0.00000    0.00000 21 "IVA"     2 -1 " " 
     51 "IVA 3       " 138.0000 " "  0  :  1 1.000955  1.000955  -14.275669    1    1 1.1000 0.9000   400101   391231   0 0   1 0   0.000000   0.000000     0 0    0.00000    0.00000    0.00000 21 "IVA"     2 -1 " " 
     52 "IVA 4       " 138.0000 " "  0  :  1 1.000608  1.000608  -14.317466    1    1 1.1000 0.9000   400101   391231   0 0   1 0   0.000000   0.000000     0 0    0.00000    0.00000    0.00000 21 "IVA"     2 -1 " " 
     53 "CAYCE 0     " 138.0000 " "  0  :  1 1.016541  1.016541  -9.773880    1    2 1.1000 0.9000   400101   391231   0 0   1 0   0.000000   0.000000     0 0    0.00000    0.00000    0.00000 22 "CAYCE"     1 -1 " " 
     54 "CAYCE 1     " 138.0000 " "  0  :  1 1.016028  1.016028  -9.829491    1    2 1.1000 0.9000   400101   391231   0 0   1 0   0.000000   0.000000     0 0    0.00000    0.00000    0.00000 22 "CAYCE"     1 -1 " " 
     55 "TROY 0      " 138.0000 " "  0  :  1 1.019140  1.019140  -9.690781    1    1 1.1000 0.9000   400101   391231   0 0   1 0   0.000000   0.000000     0 0    0.00000    0.00000    0.00000 23 "TROY"     2 -1 " " 
     56 "TROY 1      " 138.0000 " "  0  :  1 1.019106  1.019106  -9.694682    1    1 1.1000 0.9000   400101   391231   0 0   1 0   0.000000   0.000000     0 0    0.00000    0.00000    0.00000 23 "TROY"     2 -1 " " 
     57 "SIMPSONVIL~3" 345.0000 " "  0  :  1 1.010248  1.010248  -6.150022    1    1 1.1000 0.9000   400101   391231   0 0   1 0   0.000000   0.000000     0 0    0.00000    0.00000    0.00000 24 "SIMPSONVILLE 2"     2 -1 " " 
     58 "SIMPSONVIL~4" 138.0000 " "  0  :  1 1.001989  1.001989  -8.970641    1    1 1.1000 0.9000   400101   391231   0 0   1 0   0.000000   0.000000     0 0    0.00000    0.00000    0.00000 24 "SIMPSONVILLE 2"     2 -1 " " 
     59 "SIMPSONVIL~5" 138.0000 " "  0  :  1 0.999654  0.999654  -9.267558    1    1 1.1000 0.9000   400101   391231   0 0   1 0   0.000000   0.000000     0 0    0.00000    0.00000    0.00000 24 "SIMPSONVILLE 2"     2 -1 " " 
     60 "MAYO 0      " 138.0000 " "  0  :  1 1.019559  1.019559  -6.104997    1    1 1.1000 0.9000   400101   391231   0 0   1 0   0.000000   0.000000     0 0    0.00000    0.00000    0.00000 25 "MAYO"     2 -1 " " 
     61 "MAYO 1      " 138.0000 " "  0  :  1 1.019556  1.019556  -6.105377    1    1 1.1000 0.9000   400101   391231   0 0   1 0   0.000000   0.000000     0 0    0.00000    0.00000    0.00000 25 "MAYO"     2 -1 " " 
     62 "BELTON 2 0  " 138.0000 " "  0  :  1 1.009812  1.009812  -8.434965    1    1 1.1000 0.9000   400101   391231   0 0   1 0   0.000000   0.000000     0 0    0.00000    0.00000    0.00000 26 "BELTON 2"     2 -1 " " 
     63 "BELTON 2 1  "  13.8000 " "  0  :  2 1.040000 1.009812  -8.434965    1    1 1.1000 0.9000   400101   391231   0 0   1 0   0.000000   0.000000     0 0    0.00000    0.00000    0.00000 26 "BELTON 2"     2 -1 " " 
     64 "BELTON 2 2  " 138.0000 " "  0  :  1 1.009282  1.009282  -8.495522    1    1 1.1000 0.9000   400101   391231   0 0   1 0   0.000000   0.000000     0 0    0.00000    0.00000    0.00000 26 "BELTON 2"     2 -1 " " 
     65 "BRADLEY 0   " 345.0000 " "  0  :  1 1.025412  1.025412  -7.156160    1    1 1.1000 0.9000   400101   391231   0 0   1 0   0.000000   0.000000     0 0    0.00000    0.00000    0.00000 27 "BRADLEY"     2 -1 " " 
     66 "BRADLEY 1   " 138.0000 " "  0  :  1 1.021316  1.021316  -8.854026    1    1 1.1000 0.9000   400101   391231   0 0   1 0   0.000000   0.000000     0 0    0.00000    0.00000    0.00000 27 "BRADLEY"     2 -1 " " 
     67 "BRADLEY 2   " 138.0000 " "  0  :  1 1.021246  1.021246  -8.862013    1    1 1.1000 0.9000   400101   391231   0 0   1 0   0.000000   0.000000     0 0    0.00000    0.00000    0.00000 27 "BRADLEY"     2 -1 " " 
     68 "ENOREE 0    " 138.0000 " "  0  :  1 1.009594  1.009594  -10.090655    1    1 1.1000 0.9000   400101   391231   0 0   1 0   0.000000   0.000000     0 0    0.00000    0.00000    0.00000 28 "ENOREE"     2 -1 " " 
     69 "ENOREE 1    " 138.0000 " "  0  :  1 1.009303  1.009303  -10.127086    1    1 1.1000 0.9000   400101   391231   0 0   1 0   0.000000   0.000000     0 0    0.00000    0.00000    0.00000 28 "ENOREE"     2 -1 " " 
     70 "HONEA PATH~2" 138.0000 " "  0  :  1 0.995223  0.995223  -11.369091    1    1 1.1000 0.9000   400101   391231   0 0   1 0   0.000000   0.000000     0 0    0.00000    0.00000    0.00000 29 "HONEA PATH 2"     2 -1 " " 
     71 "HONEA PATH~3"  13.8000 " "  0  :  2 1.040000 0.995953  -11.266604    1    1 1.1000 0.9000   400101   391231   0 0   1 0   0.000000   0.000000     0 0    0.00000    0.00000    0.00000 29 "HONEA PATH 2"     2 -1 " " 
     72 "HONEA PATH~4"  13.8000 " "  0  :  2 1.040000 0.996394  -11.203047    1    1 1.1000 0.9000   400101   391231   0 0   1 0   0.000000   0.000000     0 0    0.00000    0.00000    0.00000 29 "HONEA PATH 2"     2 -1 " " 
     73 "HONEA PATH~5"  13.8000 " "  0  :  2 1.040000 0.996867  -11.152281    1    1 1.1000 0.9000   400101   391231   0 0   1 0   0.000000   0.000000     0 0    0.00000    0.00000    0.00000 29 "HONEA PATH 2"     2 -1 " " 
     74 "SPRINGFIEL~1" 138.0000 " "  0  :  1 1.025048  1.025048  -13.384749    1    2 1.1000 0.9000   400101   391231   0 0   1 0   0.000000   0.000000     0 0    0.00000    0.00000    0.00000 30 "SPRINGFIELD"     1 -1 " " 
     75 "SPRINGFIEL~2" 138.0000 " "  0  :  1 1.024972  1.024972  -13.393951    1    2 1.1000 0.9000   400101   391231   0 0   1 0   0.000000   0.000000     0 0    0.00000    0.00000    0.00000 30 "SPRINGFIELD"     1 -1 " " 
     76 "EDGEMOOR 0  " 138.0000 " "  0  :  1 1.017938  1.017938  3.392810    1    1 1.1000 0.9000   400101   391231   0 0   1 0   0.000000   0.000000     0 0    0.00000    0.00000    0.00000 31 "EDGEMOOR"     2 -1 " " 
     77 "EDGEMOOR 1  " 138.0000 " "  0  :  1 1.017830  1.017830  3.380789    1    1 1.1000 0.9000   400101   391231   0 0   1 0   0.000000   0.000000     0 0    0.00000    0.00000    0.00000 31 "EDGEMOOR"     2 -1 " " 
     78 "NEWRY 0     " 138.0000 " "  0  :  1 1.012663  1.012663  -4.970777    1    1 1.1000 0.9000   400101   391231   0 0   1 0   0.000000   0.000000     0 0    0.00000    0.00000    0.00000 32 "NEWRY"     2 -1 " " 
     79 "NEWRY 1     " 138.0000 " "  0  :  1 1.012657  1.012657  -4.971439    1    1 1.1000 0.9000   400101   391231   0 0   1 0   0.000000   0.000000     0 0    0.00000    0.00000    0.00000 32 "NEWRY"     2 -1 " " 
     80 "CLARKS HIL~1" 345.0000 " "  0  :  1 1.031884  1.031884  -6.691338    1    2 1.1000 0.9000   400101   391231   0 0   1 0   0.000000   0.000000     0 0    0.00000    0.00000    0.00000 33 "CLARKS HILL 1"     1 -1 " " 
     81 "CLARKS HIL~2" 138.0000 " "  0  :  1 1.026207  1.026207  -9.277308    1    2 1.1000 0.9000   400101   391231   0 0   1 0   0.000000   0.000000     0 0    0.00000    0.00000    0.00000 33 "CLARKS HILL 1"     1 -1 " " 
     82 "CLARKS HIL~3"  13.8000 " "  0  :  2 1.040000 1.040000  -0.674854    1    2 1.1000 0.9000   400101   391231   0 0   1 0   0.000000   0.000000     0 0    0.00000    0.00000    0.00000 33 "CLARKS HILL 1"     1 -1 " " 
     83 "NEWBERRY 0  " 138.0000 " "  0  :  1 1.004307  1.004307  -12.128203    1    2 1.1000 0.9000   400101   391231   0 0   1 0   0.000000   0.000000     0 0    0.00000    0.00000    0.00000 34 "NEWBERRY"     1 -1 " " 
     84 "NEWBERRY 1  " 138.0000 " "  0  :  1 1.003318  1.003318  -12.249896    1    2 1.1000 0.9000   400101   391231   0 0   1 0   0.000000   0.000000     0 0    0.00000    0.00000    0.00000 34 "NEWBERRY"     1 -1 " " 
     85 "AIKEN 3 0   " 138.0000 " "  0  :  1 1.026162  1.026162  -12.363804    1    2 1.1000 0.9000   400101   391231   0 0   1 0   0.000000   0.000000     0 0    0.00000    0.00000    0.00000 35 "AIKEN 3"     1 -1 " " 
     86 "AIKEN 3 1   " 138.0000 " "  0  :  1 1.025872  1.025872  -12.399491    1    2 1.1000 0.9000   400101   391231   0 0   1 0   0.000000   0.000000     0 0    0.00000    0.00000    0.00000 35 "AIKEN 3"     1 -1 " " 
     87 "ROCK HILL ~5" 138.0000 " "  0  :  1 1.001157  1.001157  4.158676    1    1 1.1000 0.9000   400101   391231   0 0   1 0   0.000000   0.000000     0 0    0.00000    0.00000    0.00000 36 "ROCK HILL 3"     2 -1 " " 
     88 "ROCK HILL ~6" 138.0000 " "  0  :  1 1.001075  1.001075  4.148458    1    1 1.1000 0.9000   400101   391231   0 0   1 0   0.000000   0.000000     0 0    0.00000    0.00000    0.00000 36 "ROCK HILL 3"     2 -1 " " 
     89 "CAMERON 0   " 138.0000 " "  0  :  1 1.017813  1.017813  -7.650794    1    2 1.1000 0.9000   400101   391231   0 0   1 0   0.000000   0.000000     0 0    0.00000    0.00000    0.00000 37 "CAMERON"     1 -1 " " 
     90 "CAMERON 1   " 138.0000 " "  0  :  1 1.017721  1.017721  -7.662924    1    2 1.1000 0.9000   400101   391231   0 0   1 0   0.000000   0.000000     0 0    0.00000    0.00000    0.00000 37 "CAMERON"     1 -1 " " 
     91 "SENECA 2 0  " 138.0000 " "  0  :  1 1.011764  1.011764  -4.102061    1    1 1.1000 0.9000   400101   391231   0 0   1 0   0.000000   0.000000     0 0    0.00000    0.00000    0.00000 38 "SENECA 2"     2 -1 " " 
     92 "SENECA 2 1  " 138.0000 " "  0  :  1 1.010773  1.010773  -4.228292    1    1 1.1000 0.9000   400101   391231   0 0   1 0   0.000000   0.000000     0 0    0.00000    0.00000    0.00000 38 "SENECA 2"     2 -1 " " 
     93 "BLAIR 0     " 138.0000 " "  0  :  1 1.015496  1.015496  -2.983319    1    2 1.1000 0.9000   400101   391231   0 0   1 0   0.000000   0.000000     0 0    0.00000    0.00000    0.00000 39 "BLAIR"     1 -1 " " 
     94 "BLAIR 1     " 138.0000 " "  0  :  1 1.015424  1.015424  -2.992412    1    2 1.1000 0.9000   400101   391231   0 0   1 0   0.000000   0.000000     0 0    0.00000    0.00000    0.00000 39 "BLAIR"     1 -1 " " 
     95 "WALHALLA 0  " 138.0000 " "  0  :  1 1.012184  1.012184  -4.069760    1    1 1.1000 0.9000   400101   391231   0 0   1 0   0.000000   0.000000     0 0    0.00000    0.00000    0.00000 40 "WALHALLA"     2 -1 " " 
     96 "WALHALLA 1  " 138.0000 " "  0  :  1 1.011702  1.011702  -4.128795    1    1 1.1000 0.9000   400101   391231   0 0   1 0   0.000000   0.000000     0 0    0.00000    0.00000    0.00000 40 "WALHALLA"     2 -1 " " 
     97 "ANDERSON 4 0" 138.0000 " "  0  :  1 1.004676  1.004676  -14.693085    1    1 1.1000 0.9000   400101   391231   0 0   1 0   0.000000   0.000000     0 0    0.00000    0.00000    0.00000 41 "ANDERSON 4"     2 -1 " " 
     98 "ANDERSON 4 1" 138.0000 " "  0  :  1 1.004072  1.004072  -14.773864    1    1 1.1000 0.9000   400101   391231   0 0   1 0   0.000000   0.000000     0 0    0.00000    0.00000    0.00000 41 "ANDERSON 4"     2 -1 " " 
     99 "PACOLET 0   " 138.0000 " "  0  :  1 1.022212  1.022212  -5.694555    1    1 1.1000 0.9000   400101   391231   0 0   1 0   0.000000   0.000000     0 0    0.00000    0.00000    0.00000 42 "PACOLET"     2 -1 " " 
    100 "PACOLET 1   " 138.0000 " "  0  :  1 1.021999  1.021999  -5.720127    1    1 1.1000 0.9000   400101   391231   0 0   1 0   0.000000   0.000000     0 0    0.00000    0.00000    0.00000 42 "PACOLET"     2 -1 " " 
    101 "PACOLET 2   " 138.0000 " "  0  :  1 1.022198  1.022198  -5.696073    1    1 1.1000 0.9000   400101   391231   0 0   1 0   0.000000   0.000000     0 0    0.00000    0.00000    0.00000 42 "PACOLET"     2 -1 " " 
    102 "ABBEVILLE 0 " 138.0000 " "  0  :  1 1.002946  1.002946  -13.120671    1    1 1.1000 0.9000   400101   391231   0 0   1 0   0.000000   0.000000     0 0    0.00000    0.00000    0.00000 43 "ABBEVILLE"     2 -1 " " 
    103 "ABBEVILLE 1 " 138.0000 " "  0  :  1 1.002308  1.002308  -13.202725    1    1 1.1000 0.9000   400101   391231   0 0   1 0   0.000000   0.000000     0 0    0.00000    0.00000    0.00000 43 "ABBEVILLE"     2 -1 " " 
    104 "AIKEN 2 0   " 138.0000 " "  0  :  1 1.018414  1.018414  -13.946336    1    2 1.1000 0.9000   400101   391231   0 0   1 0   0.000000   0.000000     0 0    0.00000    0.00000    0.00000 44 "AIKEN 2"     1 -1 " " 
    105 "AIKEN 2 1   " 138.0000 " "  0  :  1 1.017089  1.017089  -14.105046    1    2 1.1000 0.9000   400101   391231   0 0   1 0   0.000000   0.000000     0 0    0.00000    0.00000    0.00000 44 "AIKEN 2"     1 -1 " " 
    106 "JOHNSTON 0  " 138.0000 " "  0  :  1 1.020287  1.020287  -11.273091    1    2 1.1000 0.9000   400101   391231   0 0   1 0   0.000000   0.000000     0 0    0.00000    0.00000    0.00000 45 "JOHNSTON"     1 -1 " " 
    107 "JOHNSTON 1  " 138.0000 " "  0  :  1 1.020063  1.020063  -11.299992    1    2 1.1000 0.9000   400101   391231   0 0   1 0   0.000000   0.000000     0 0    0.00000    0.00000    0.00000 45 "JOHNSTON"     1 -1 " " 
    108 "SPARTANBU~14" 138.0000 " "  0  :  1 1.015148  1.015148  -6.628576    1    1 1.1000 0.9000   400101   391231   0 0   1 0   0.000000   0.000000     0 0    0.00000    0.00000    0.00000 46 "SPARTANBURG 6"     2 -1 " " 
    109 "SPARTANBU~15" 138.0000 " "  0  :  1 1.014462  1.014462  -6.703604    1    1 1.1000 0.9000   400101   391231   0 0   1 0   0.000000   0.000000     0 0    0.00000    0.00000    0.00000 46 "SPARTANBURG 6"     2 -1 " " 
    110 "GAFFNEY 2 0 " 138.0000 " "  0  :  1 1.027405  1.027405  -1.483451    1    1 1.1000 0.9000   400101   391231   0 0   1 0   0.000000   0.000000     0 0    0.00000    0.00000    0.00000 47 "GAFFNEY 2"     2 -1 " " 
    111 "GAFFNEY 2 1 " 138.0000 " "  0  :  1 1.026483  1.026483  -1.604187    1    1 1.1000 0.9000   400101   391231   0 0   1 0   0.000000   0.000000     0 0    0.00000    0.00000    0.00000 47 "GAFFNEY 2"     2 -1 " " 
    112 "LEESVILLE 0 " 138.0000 " "  0  :  1 1.014100  1.014100  -10.274984    1    2 1.1000 0.9000   400101   391231   0 0   1 0   0.000000   0.000000     0 0    0.00000    0.00000    0.00000 48 "LEESVILLE"     1 -1 " " 
    113 "LEESVILLE 1 " 138.0000 " "  0  :  1 1.013429  1.013429  -10.350557    1    2 1.1000 0.9000   400101   391231   0 0   1 0   0.000000   0.000000     0 0    0.00000    0.00000    0.00000 48 "LEESVILLE"     1 -1 " " 
    114 "LANGLEY 0   " 138.0000 " "  0  :  1 1.019159  1.019159  -12.782173    1    2 1.1000 0.9000   400101   391231   0 0   1 0   0.000000   0.000000     0 0    0.00000    0.00000    0.00000 49 "LANGLEY"     1 -1 " " 
    115 "LANGLEY 1   " 138.0000 " "  0  :  1 1.019089  1.019089  -12.791178    1    2 1.1000 0.9000   400101   391231   0 0   1 0   0.000000   0.000000     0 0    0.00000    0.00000    0.00000 49 "LANGLEY"     1 -1 " " 
    116 "LANGLEY 2   " 138.0000 " "  0  :  1 1.019116  1.019116  -12.787773    1    2 1.1000 0.9000   400101   391231   0 0   1 0   0.000000   0.000000     0 0    0.00000    0.00000    0.00000 49 "LANGLEY"     1 -1 " " 
    117 "DONALDS 0   " 138.0000 " "  0  :  1 1.004536  1.004536  -10.440633    1    1 1.1000 0.9000   400101   391231   0 0   1 0   0.000000   0.000000     0 0    0.00000    0.00000    0.00000 50 "DONALDS"     2 -1 " " 
    118 "DONALDS 1   " 138.0000 " "  0  :  1 1.004390  1.004390  -10.459100    1    1 1.1000 0.9000   400101   391231   0 0   1 0   0.000000   0.000000     0 0    0.00000    0.00000    0.00000 50 "DONALDS"     2 -1 " " 
    119 "GREENVILL~17" 138.0000 " "  0  :  1 0.987114  0.987114  -11.917873    1    1 1.1000 0.9000   400101   391231   0 0   1 0   0.000000   0.000000     0 0    0.00000    0.00000    0.00000 51 "GREENVILLE 7"     2 -1 " " 
    120 "GREENVILL~18" 138.0000 " "  0  :  1 0.986673  0.986673  -11.972067    1    1 1.1000 0.9000   400101   391231   0 0   1 0   0.000000   0.000000     0 0    0.00000    0.00000    0.00000 51 "GREENVILLE 7"     2 -1 " " 
    121 "COLUMBIA 9 0" 138.0000 " "  0  :  1 1.012916  1.012916  -10.493538    1    2 1.1000 0.9000   400101   391231   0 0   1 0   0.000000   0.000000     0 0    0.00000    0.00000    0.00000 52 "COLUMBIA 9"     1 -1 " " 
    122 "COLUMBIA 9 1" 138.0000 " "  0  :  1 1.012081  1.012081  -10.603845    1    2 1.1000 0.9000   400101   391231   0 0   1 0   0.000000   0.000000     0 0    0.00000    0.00000    0.00000 52 "COLUMBIA 9"     1 -1 " " 
    123 "SALEM 3 0   " 345.0000 " "  0  :  1 1.030092  1.030092  -0.277505    1    1 1.1000 0.9000   400101   391231   0 0   1 0   0.000000   0.000000     0 0    0.00000    0.00000    0.00000 53 "SALEM 3"     2 -1 " " 
    124 "SALEM 3 1   " 138.0000 " "  0  :  1 1.027654  1.027654  -0.980921    1    1 1.1000 0.9000   400101   391231   0 0   1 0   0.000000   0.000000     0 0    0.00000    0.00000    0.00000 53 "SALEM 3"     2 -1 " " 
    125 "SALEM 3 2   "  13.8000 " "  0  :  2 1.040000 1.030092  -0.277505    1    1 1.1000 0.9000   400101   391231   0 0   1 0   0.000000   0.000000     0 0    0.00000    0.00000    0.00000 53 "SALEM 3"     2 -1 " " 
    126 "SALEM 3 3   "  13.8000 " "  0  :  2 1.040000 1.030092  -0.277505    1    1 1.1000 0.9000   400101   391231   0 0   1 0   0.000000   0.000000     0 0    0.00000    0.00000    0.00000 53 "SALEM 3"     2 -1 " " 
    127 "SALEM 3 4   "  13.8000 " "  0  :  2 1.040000 1.040000  3.872702    1    1 1.1000 0.9000   400101   391231   0 0   1 0   0.000000   0.000000     0 0    0.00000    0.00000    0.00000 53 "SALEM 3"     2 -1 " " 
    128 "SALEM 3 5   "  13.8000 " "  0  :  2 1.040000 1.039533  1.091191    1    1 1.1000 0.9000   400101   391231   0 0   1 0   0.000000   0.000000     0 0    0.00000    0.00000    0.00000 53 "SALEM 3"     2 -1 " " 
    129 "GREENVILL~15" 138.0000 " "  0  :  1 0.984222  0.984222  -12.434626    1    1 1.1000 0.9000   400101   391231   0 0   1 0   0.000000   0.000000     0 0    0.00000    0.00000    0.00000 54 "GREENVILLE 6"     2 -1 " " 
    130 "GREENVILL~16" 138.0000 " "  0  :  1 0.982581  0.982581  -12.620261    1    1 1.1000 0.9000   400101   391231   0 0   1 0   0.000000   0.000000     0 0    0.00000    0.00000    0.00000 54 "GREENVILLE 6"     2 -1 " " 
    131 "COWPENS 0   " 138.0000 " "  0  :  1 1.020273  1.020273  -5.976244    1    1 1.1000 0.9000   400101   391231   0 0   1 0   0.000000   0.000000     0 0    0.00000    0.00000    0.00000 55 "COWPENS"     2 -1 " " 
    132 "COWPENS 1   " 138.0000 " "  0  :  1 1.019868  1.019868  -6.023923    1    1 1.1000 0.9000   400101   391231   0 0   1 0   0.000000   0.000000     0 0    0.00000    0.00000    0.00000 55 "COWPENS"     2 -1 " " 
    133 "WESTMINSTE~3" 138.0000 " "  0  :  1 1.012914  1.012914  -4.028597    1    1 1.1000 0.9000   400101   391231   0 0   1 0   0.000000   0.000000     0 0    0.00000    0.00000    0.00000 56 "WESTMINSTER 2"     2 -1 " " 
    134 "WESTMINSTE~4" 138.0000 " "  0  :  1 1.012350  1.012350  -4.098777    1    1 1.1000 0.9000   400101   391231   0 0   1 0   0.000000   0.000000     0 0    0.00000    0.00000    0.00000 56 "WESTMINSTER 2"     2 -1 " " 
    135 "SAINT MATT~1" 138.0000 " "  0  :  1 1.015277  1.015277  -7.851748    1    2 1.1000 0.9000   400101   391231   0 0   1 0   0.000000   0.000000     0 0    0.00000    0.00000    0.00000 57 "SAINT MATTHEWS"     1 -1 " " 
    136 "SAINT MATT~2" 138.0000 " "  0  :  1 1.014874  1.014874  -7.904033    1    2 1.1000 0.9000   400101   391231   0 0   1 0   0.000000   0.000000     0 0    0.00000    0.00000    0.00000 57 "SAINT MATTHEWS"     1 -1 " " 
    137 "GREENWOOD ~3" 138.0000 " "  0  :  1 1.006845  1.006845  -10.557650    1    1 1.1000 0.9000   400101   391231   0 0   1 0   0.000000   0.000000     0 0    0.00000    0.00000    0.00000 58 "GREENWOOD 2"     2 -1 " " 
    138 "GREENWOOD ~4" 138.0000 " "  0  :  1 1.005616  1.005616  -10.719761    1    1 1.1000 0.9000   400101   391231   0 0   1 0   0.000000   0.000000     0 0    0.00000    0.00000    0.00000 58 "GREENWOOD 2"     2 -1 " " 
    139 "FINGERVILL~1" 138.0000 " "  0  :  1 1.015845  1.015845  -6.638370    1    1 1.1000 0.9000   400101   391231   0 0   1 0   0.000000   0.000000     0 0    0.00000    0.00000    0.00000 59 "FINGERVILLE"     2 -1 " " 
    140 "FINGERVILL~2" 138.0000 " "  0  :  1 1.015841  1.015841  -6.638798    1    1 1.1000 0.9000   400101   391231   0 0   1 0   0.000000   0.000000     0 0    0.00000    0.00000    0.00000 59 "FINGERVILLE"     2 -1 " " 
    141 "ROCK HILL ~3" 138.0000 " "  0  :  1 1.000740  1.000740  0.904733    1    1 1.1000 0.9000   400101   391231   0 0   1 0   0.000000   0.000000     0 0    0.00000    0.00000    0.00000 60 "ROCK HILL 2"     2 -1 " " 
    142 "ROCK HILL ~4" 138.0000 " "  0  :  1 0.998143  0.998143  0.605476    1    1 1.1000 0.9000   400101   391231   0 0   1 0   0.000000   0.000000     0 0    0.00000    0.00000    0.00000 60 "ROCK HILL 2"     2 -1 " " 
    143 "YORK 2 0    " 138.0000 " "  0  :  1 1.018857  1.018857  9.880967    1    1 1.1000 0.9000   400101   391231   0 0   1 0   0.000000   0.000000     0 0    0.00000    0.00000    0.00000 61 "YORK 2"     2 -1 " " 
    144 "YORK 2 1    "  13.8000 " "  0  :  2 1.040000 1.040000  22.413557    1    1 1.1000 0.9000   400101   391231   0 0   1 0   0.000000   0.000000     0 0    0.00000    0.00000    0.00000 61 "YORK 2"     2 -1 " " 
    145 "YORK 2 2    "  13.8000 " "  0  :  2 1.040000 1.040000  12.557682    1    1 1.1000 0.9000   400101   391231   0 0   1 0   0.000000   0.000000     0 0    0.00000    0.00000    0.00000 61 "YORK 2"     2 -1 " " 
    146 "CHAPIN 0    " 345.0000 " "  0  :  1 1.028807  1.028807  -4.406195    1    2 1.1000 0.9000   400101   391231   0 0   1 0   0.000000   0.000000     0 0    0.00000    0.00000    0.00000 62 "CHAPIN"     1 -1 " " 
    147 "CHAPIN 1    " 138.0000 " "  0  :  1 1.017177  1.017177  -5.091067    1    2 1.1000 0.9000   400101   391231   0 0   1 0   0.000000   0.000000     0 0    0.00000    0.00000    0.00000 62 "CHAPIN"     1 -1 " " 
    148 "CHAPIN 2    " 138.0000 " "  0  :  1 1.016247  1.016247  -5.211278    1    2 1.1000 0.9000   400101   391231   0 0   1 0   0.000000   0.000000     0 0    0.00000    0.00000    0.00000 62 "CHAPIN"     1 -1 " " 
    149 "MODOC 0     " 138.0000 " "  0  :  1 1.022077  1.022077  -10.214261    1    2 1.1000 0.9000   400101   391231   0 0   1 0   0.000000   0.000000     0 0    0.00000    0.00000    0.00000 63 "MODOC"     1 -1 " " 
    150 "MODOC 1     " 138.0000 " "  0  :  1 1.022052  1.022052  -10.217156    1    2 1.1000 0.9000   400101   391231   0 0   1 0   0.000000   0.000000     0 0    0.00000    0.00000    0.00000 63 "MODOC"     1 -1 " " 
    151 "SPARTANBU~11" 345.0000 " "  0  :  1 1.028199  1.028199  -4.565813    1    1 1.1000 0.9000   400101   391231   0 0   1 0   0.000000   0.000000     0 0    0.00000    0.00000    0.00000 64 "SPARTANBURG 5"     2 -1 " " 
    152 "SPARTANBU~12" 138.0000 " "  0  :  1 1.027374  1.027374  -6.964574    1    1 1.1000 0.9000   400101   391231   0 0   1 0   0.000000   0.000000     0 0    0.00000    0.00000    0.00000 64 "SPARTANBURG 5"     2 -1 " " 
    153 "SPARTANBU~13" 138.0000 " "  0  :  1 1.026137  1.026137  -7.114999    1    1 1.1000 0.9000   400101   391231   0 0   1 0   0.000000   0.000000     0 0    0.00000    0.00000    0.00000 64 "SPARTANBURG 5"     2 -1 " " 
    154 "BOILING SP~1" 138.0000 " "  0  :  1 1.010239  1.010239  -7.509774    1    1 1.1000 0.9000   400101   391231   0 0   1 0   0.000000   0.000000     0 0    0.00000    0.00000    0.00000 65 "BOILING SPRINGS"     2 -1 " " 
    155 "BOILING SP~2" 138.0000 " "  0  :  1 1.009354  1.009354  -7.617307    1    1 1.1000 0.9000   400101   391231   0 0   1 0   0.000000   0.000000     0 0    0.00000    0.00000    0.00000 65 "BOILING SPRINGS"     2 -1 " " 
    156 "GREENVILL~13" 138.0000 " "  0  :  1 0.989458  0.989458  -11.146434    1    1 1.1000 0.9000   400101   391231   0 0   1 0   0.000000   0.000000     0 0    0.00000    0.00000    0.00000 66 "GREENVILLE 5"     2 -1 " " 
    157 "GREENVILL~14" 138.0000 " "  0  :  1 0.987795  0.987795  -11.357826    1    1 1.1000 0.9000   400101   391231   0 0   1 0   0.000000   0.000000     0 0    0.00000    0.00000    0.00000 66 "GREENVILLE 5"     2 -1 " " 
    158 "PELION 0    " 138.0000 " "  0  :  1 1.010860  1.010860  -10.054788    1    2 1.1000 0.9000   400101   391231   0 0   1 0   0.000000   0.000000     0 0    0.00000    0.00000    0.00000 67 "PELION"     1 -1 " " 
    159 "PELION 1    " 138.0000 " "  0  :  1 1.010490  1.010490  -10.102379    1    2 1.1000 0.9000   400101   391231   0 0   1 0   0.000000   0.000000     0 0    0.00000    0.00000    0.00000 67 "PELION"     1 -1 " " 
    160 "GRANITEVIL~1" 138.0000 " "  0  :  1 1.019855  1.019855  -11.525286    1    2 1.1000 0.9000   400101   391231   0 0   1 0   0.000000   0.000000     0 0    0.00000    0.00000    0.00000 68 "GRANITEVILLE"     1 -1 " " 
    161 "GRANITEVIL~2" 138.0000 " "  0  :  1 1.019471  1.019471  -11.574194    1    2 1.1000 0.9000   400101   391231   0 0   1 0   0.000000   0.000000     0 0    0.00000    0.00000    0.00000 68 "GRANITEVILLE"     1 -1 " " 
    162 "IRMO 0      " 345.0000 " "  0  :  1 1.029096  1.029096  -4.368150    1    2 1.1000 0.9000   400101   391231   0 0   1 0   0.000000   0.000000     0 0    0.00000    0.00000    0.00000 69 "IRMO"     1 -1 " " 
    163 "IRMO 1      " 138.0000 " "  0  :  1 1.025214  1.025214  -5.148050    1    2 1.1000 0.9000   400101   391231   0 0   1 0   0.000000   0.000000     0 0    0.00000    0.00000    0.00000 69 "IRMO"     1 -1 " " 
    164 "IRMO 2      " 138.0000 " "  0  :  1 1.023565  1.023565  -5.352447    1    2 1.1000 0.9000   400101   391231   0 0   1 0   0.000000   0.000000     0 0    0.00000    0.00000    0.00000 69 "IRMO"     1 -1 " " 
    165 "SALEM 2 0   " 345.0000 " "  0  :  1 1.030394  1.030394  0.075112    1    1 1.1000 0.9000   400101   391231   0 0   1 0   0.000000   0.000000     0 0    0.00000    0.00000    0.00000 70 "SALEM 2"     2 -1 " " 
    166 "SALEM 2 1   " 138.0000 " "  0  :  1 1.024592  1.024592  -1.492964    1    1 1.1000 0.9000   400101   391231   0 0   1 0   0.000000   0.000000     0 0    0.00000    0.00000    0.00000 70 "SALEM 2"     2 -1 " " 
    167 "SALEM 2 2   "  13.8000 " "  0  :  2 1.040000 1.040000  2.295907    1    1 1.1000 0.9000   400101   391231   0 0   1 0   0.000000   0.000000     0 0    0.00000    0.00000    0.00000 70 "SALEM 2"     2 -1 " " 
    168 "SALEM 2 3   "  13.8000 " "  0  :  2 1.040000 1.040000  3.744285    1    1 1.1000 0.9000   400101   391231   0 0   1 0   0.000000   0.000000     0 0    0.00000    0.00000    0.00000 70 "SALEM 2"     2 -1 " " 
    169 "SALEM 2 4   "  13.8000 " "  0  :  2 1.040000 1.040000  5.365912    1    1 1.1000 0.9000   400101   391231   0 0   1 0   0.000000   0.000000     0 0    0.00000    0.00000    0.00000 70 "SALEM 2"     2 -1 " " 
    170 "WEST UNION 0" 138.0000 " "  0  :  1 1.011700  1.011700  -4.207722    1    1 1.1000 0.9000   400101   391231   0 0   1 0   0.000000   0.000000     0 0    0.00000    0.00000    0.00000 71 "WEST UNION"     2 -1 " " 
    171 "WEST UNION 1" 138.0000 " "  0  :  1 1.011514  1.011514  -4.232925    1    1 1.1000 0.9000   400101   391231   0 0   1 0   0.000000   0.000000     0 0    0.00000    0.00000    0.00000 71 "WEST UNION"     2 -1 " " 
    172 "CROSS HILL 0" 138.0000 " "  0  :  1 1.005021  1.005021  -9.319500    1    1 1.1000 0.9000   400101   391231   0 0   1 0   0.000000   0.000000     0 0    0.00000    0.00000    0.00000 72 "CROSS HILL"     2 -1 " " 
    173 "CROSS HILL 1" 138.0000 " "  0  :  1 1.004974  1.004974  -9.324753    1    1 1.1000 0.9000   400101   391231   0 0   1 0   0.000000   0.000000     0 0    0.00000    0.00000    0.00000 72 "CROSS HILL"     2 -1 " " 
    174 "CROSS HILL 2" 138.0000 " "  0  :  1 1.004920  1.004920  -9.331447    1    1 1.1000 0.9000   400101   391231   0 0   1 0   0.000000   0.000000     0 0    0.00000    0.00000    0.00000 72 "CROSS HILL"     2 -1 " " 
    175 "FORT LAWN 0 " 345.0000 " "  0  :  1 1.033976  1.033976  -0.091223    1    1 1.1000 0.9000   400101   391231   0 0   1 0   0.000000   0.000000     0 0    0.00000    0.00000    0.00000 73 "FORT LAWN"     2 -1 " " 
    176 "FORT LAWN 1 " 138.0000 " "  0  :  1 1.023163  1.023163  0.719265    1    1 1.1000 0.9000   400101   391231   0 0   1 0   0.000000   0.000000     0 0    0.00000    0.00000    0.00000 73 "FORT LAWN"     2 -1 " " 
    177 "FORT LAWN 2 " 138.0000 " "  0  :  1 1.023031  1.023031  0.702440    1    1 1.1000 0.9000   400101   391231   0 0   1 0   0.000000   0.000000     0 0    0.00000    0.00000    0.00000 73 "FORT LAWN"     2 -1 " " 
    178 "FORT LAWN 3 " 138.0000 " "  0  :  1 1.023061  1.023061  0.708178    1    1 1.1000 0.9000   400101   391231   0 0   1 0   0.000000   0.000000     0 0    0.00000    0.00000    0.00000 73 "FORT LAWN"     2 -1 " " 
    179 "NORTH 0     " 138.0000 " "  0  :  1 1.004260  1.004260  -11.279192    1    2 1.1000 0.9000   400101   391231   0 0   1 0   0.000000   0.000000     0 0    0.00000    0.00000    0.00000 74 "NORTH"     1 -1 " " 
    180 "NORTH 1     " 138.0000 " "  0  :  1 1.004038  1.004038  -11.304231    1    2 1.1000 0.9000   400101   391231   0 0   1 0   0.000000   0.000000     0 0    0.00000    0.00000    0.00000 74 "NORTH"     1 -1 " " 
    181 "ANDERSON 3 0" 138.0000 " "  0  :  1 1.011242  1.011242  -14.491345    1    1 1.1000 0.9000   400101   391231   0 0   1 0   0.000000   0.000000     0 0    0.00000    0.00000    0.00000 75 "ANDERSON 3"     2 -1 " " 
    182 "ANDERSON 3 1" 138.0000 " "  0  :  1 1.009911  1.009911  -14.655747    1    1 1.1000 0.9000   400101   391231   0 0   1 0   0.000000   0.000000     0 0    0.00000    0.00000    0.00000 75 "ANDERSON 3"     2 -1 " " 
    183 "BLACKSBURG~6" 138.0000 " "  0  :  1 1.024962  1.024962  -3.219058    1    1 1.1000 0.9000   400101   391231   0 0   1 0   0.000000   0.000000     0 0    0.00000    0.00000    0.00000 76 "BLACKSBURG 2"     2 -1 " " 
    184 "BLACKSBURG~7" 138.0000 " "  0  :  1 1.024565  1.024565  -3.266209    1    1 1.1000 0.9000   400101   391231   0 0   1 0   0.000000   0.000000     0 0    0.00000    0.00000    0.00000 76 "BLACKSBURG 2"     2 -1 " " 
    185 "LIBERTY 0   " 138.0000 " "  0  :  1 1.009554  1.009554  -5.782083    1    1 1.1000 0.9000   400101   391231   0 0   1 0   0.000000   0.000000     0 0    0.00000    0.00000    0.00000 77 "LIBERTY"     2 -1 " " 
    186 "LIBERTY 1   " 138.0000 " "  0  :  1 1.008933  1.008933  -5.856463    1    1 1.1000 0.9000   400101   391231   0 0   1 0   0.000000   0.000000     0 0    0.00000    0.00000    0.00000 77 "LIBERTY"     2 -1 " " 
    187 "ELLOREE 0   " 138.0000 " "  0  :  1 1.017114  1.017114  -8.036407    1    2 1.1000 0.9000   400101   391231   0 0   1 0   0.000000   0.000000     0 0    0.00000    0.00000    0.00000 78 "ELLOREE"     1 -1 " " 
    188 "ELLOREE 1   " 138.0000 " "  0  :  1 1.016950  1.016950  -8.054561    1    2 1.1000 0.9000   400101   391231   0 0   1 0   0.000000   0.000000     0 0    0.00000    0.00000    0.00000 78 "ELLOREE"     1 -1 " " 
    189 "WAGENER 0   " 138.0000 " "  0  :  1 1.027833  1.027833  -13.669316    1    2 1.1000 0.9000   400101   391231   0 0   1 0   0.000000   0.000000     0 0    0.00000    0.00000    0.00000 79 "WAGENER"     1 -1 " " 
    190 "WAGENER 1   " 138.0000 " "  0  :  1 1.027629  1.027629  -13.690888    1    2 1.1000 0.9000   400101   391231   0 0   1 0   0.000000   0.000000     0 0    0.00000    0.00000    0.00000 79 "WAGENER"     1 -1 " " 
    191 "TRENTON 0   " 138.0000 " "  0  :  1 1.019638  1.019638  -12.257347    1    2 1.1000 0.9000   400101   391231   0 0   1 0   0.000000   0.000000     0 0    0.00000    0.00000    0.00000 80 "TRENTON"     1 -1 " " 
    192 "TRENTON 1   " 138.0000 " "  0  :  1 1.019365  1.019365  -12.289803    1    2 1.1000 0.9000   400101   391231   0 0   1 0   0.000000   0.000000     0 0    0.00000    0.00000    0.00000 80 "TRENTON"     1 -1 " " 
    193 "BATESBURG 0 " 138.0000 " "  0  :  1 1.015321  1.015321  -10.756351    1    2 1.1000 0.9000   400101   391231   0 0   1 0   0.000000   0.000000     0 0    0.00000    0.00000    0.00000 81 "BATESBURG"     1 -1 " " 
    194 "BATESBURG 1 " 138.0000 " "  0  :  1 1.014837  1.014837  -10.814059    1    2 1.1000 0.9000   400101   391231   0 0   1 0   0.000000   0.000000     0 0    0.00000    0.00000    0.00000 81 "BATESBURG"     1 -1 " " 
    195 "COLUMBIA 8 0" 345.0000 " "  0  :  1 1.029097  1.029097  -4.395098    1    2 1.1000 0.9000   400101   391231   0 0   1 0   0.000000   0.000000     0 0    0.00000    0.00000    0.00000 82 "COLUMBIA 8"     1 -1 " " 
    196 "COLUMBIA 8 1" 138.0000 " "  0  :  1 1.019713  1.019713  -6.645405    1    2 1.1000 0.9000   400101   391231   0 0   1 0   0.000000   0.000000     0 0    0.00000    0.00000    0.00000 82 "COLUMBIA 8"     1 -1 " " 
    197 "COLUMBIA 8 2"  13.8000 " "  0  :  2 1.040000 1.040000  0.472472    1    2 1.1000 0.9000   400101   391231   0 0   1 0   0.000000   0.000000     0 0    0.00000    0.00000    0.00000 82 "COLUMBIA 8"     1 -1 " " 
    198 "COLUMBIA 8 3"  13.8000 " "  0  :  2 1.040000 1.040000  -1.980408    1    2 1.1000 0.9000   400101   391231   0 0   1 0   0.000000   0.000000     0 0    0.00000    0.00000    0.00000 82 "COLUMBIA 8"     1 -1 " " 
    199 "COLUMBIA 8 4" 138.0000 " "  0  :  1 1.018372  1.018372  -6.794483    1    2 1.1000 0.9000   400101   391231   0 0   1 0   0.000000   0.000000     0 0    0.00000    0.00000    0.00000 82 "COLUMBIA 8"     1 -1 " " 
    200 "LITTLE MOU~1" 138.0000 " "  0  :  1 1.020711  1.020711  -5.906055    1    2 1.1000 0.9000   400101   391231   0 0   1 0   0.000000   0.000000     0 0    0.00000    0.00000    0.00000 83 "LITTLE MOUNTAIN"     1 -1 " " 
...
branch data  [  466]                                          ck  se  ------------long_id_------------    st resist   react   charge   rate1  rate2  rate3  rate4 aloss  lngth 
      2 "WINNSBORO 1 " 138.00       1 "WINNSBORO 0 " 138.00  "1 "   1 " "  :  1  0.000531  0.003140  0.000000   76.5    0.0    0.0    0.0 0.000    0.0 /
   1    2  0.000000  0.000000  1.000000   400101   391231   0 1  0    0.0    0.0    0.0    0.0   1 1.000   0 0.000   0 0.000   0 0.000   0 0.000   0 0.000   0 0.000   0 0.000  0 0  0  0  0  90.000 
      3 "COLUMBIA 1~3" 138.00     479 "RIDGEWAY 1 0" 138.00  "1 "   1 " "  :  1  0.007258  0.069699  0.022500  320.3    0.0    0.0    0.0 0.000    0.0 /
   1    2  0.000000  0.000000  1.000000   400101   391231   0 1  0    0.0    0.0    0.0    0.0   1 1.000   0 0.000   0 0.000   0 0.000   0 0.000   0 0.000   0 0.000   0 0.000  0 0  0  0  0  90.000 
      4 "COLUMBIA 1~4" 138.00       3 "COLUMBIA 1~3" 138.00  "1 "   1 " "  :  1  0.000692  0.003518  0.000000  225.1    0.0    0.0    0.0 0.000    0.0 /
   1    2  0.000000  0.000000  1.000000   400101   391231   0 1  0    0.0    0.0    0.0    0.0   1 1.000   0 0.000   0 0.000   0 0.000   0 0.000   0 0.000   0 0.000   0 0.000  0 0  0  0  0  90.000 
      6 "SMYRNA 1    " 138.00       5 "SMYRNA 0    " 138.00  "1 "   1 " "  :  1  0.000556  0.003563  0.000000    4.5    0.0    0.0    0.0 0.000    0.0 /
   1    1  0.000000  0.000000  1.000000   400101   391231   0 1  0    0.0    0.0    0.0    0.0   1 1.000   0 0.000   0 0.000   0 0.000   0 0.000   0 0.000   0 0.000   0 0.000  0 0  0  0  0  90.000 
      7 "EASTOVER 2 0" 345.00     232 "WEST COLUM~3" 345.00  "1 "   1 " "  :  1  0.001119  0.014808  0.312051 1493.9    0.0    0.0    0.0 0.000    0.0 /
   1    2  0.000000  0.000000  1.000000   400101   391231   0 1  0    0.0    0.0    0.0    0.0   1 1.000   0 0.000   0 0.000   0 0.000   0 0.000   0 0.000   0 0.000   0 0.000  0 0  0  0  0  90.000 
      7 "EASTOVER 2 0" 345.00     262 "COLUMBIA 6 0" 345.00  "1 "   1 " "  :  1  0.000947  0.013749  0.239936 1493.9    0.0    0.0    0.0 0.000    0.0 /
   1    2  0.000000  0.000000  1.000000   400101   391231   0 1  0    0.0    0.0    0.0    0.0   1 1.000   0 0.000   0 0.000   0 0.000   0 0.000   0 0.000   0 0.000   0 0.000  0 0  0  0  0  90.000 
      8 "EASTOVER 2 1" 138.00     287 "HOPKINS 0   " 138.00  "1 "   1 " "  :  1  0.003727  0.035786  0.011552  320.3    0.0    0.0    0.0 0.000    0.0 /
   1    2  0.000000  0.000000  1.000000   400101   391231   0 1  0    0.0    0.0    0.0    0.0   1 1.000   0 0.000   0 0.000   0 0.000   0 0.000   0 0.000   0 0.000   0 0.000  0 0  0  0  0  90.000 
      8 "EASTOVER 2 1" 138.00     457 "EASTOVER 1 0" 138.00  "1 "   1 " "  :  1  0.001974  0.018955  0.006119  320.3    0.0    0.0    0.0 0.000    0.0 /
   1    2  0.000000  0.000000  1.000000   400101   391231   0 1  0    0.0    0.0    0.0    0.0   1 1.000   0 0.000   0 0.000   0 0.000   0 0.000   0 0.000   0 0.000   0 0.000  0 0  0  0  0  90.000 
     10 "CHAPPELLS ~6" 138.00     349 "CHAPPELLS ~1" 138.00  "1 "   1 " "  :  1  0.001402  0.013460  0.004345  320.3    0.0    0.0    0.0 0.000    0.0 /
   1    2  0.000000  0.000000  1.000000   400101   391231   0 1  0    0.0    0.0    0.0    0.0   1 1.000   0 0.000   0 0.000   0 0.000   0 0.000   0 0.000   0 0.000   0 0.000  0 0  0  0  0  90.000 
     11 "CHAPPELLS ~7" 138.00      10 "CHAPPELLS ~6" 138.00  "1 "   1 " "  :  1  0.000655  0.003201  0.000000    4.0    0.0    0.0    0.0 0.000    0.0 /
   1    2  0.000000  0.000000  1.000000   400101   391231   0 1  0    0.0    0.0    0.0    0.0   1 1.000   0 0.000   0 0.000   0 0.000   0 0.000   0 0.000   0 0.000   0 0.000  0 0  0  0  0  90.000 
     12 "PELZER 0    " 138.00     216 "BELTON 1 0  " 138.00  "1 "   1 " "  :  1  0.003962  0.038048  0.012282  320.3    0.0    0.0    0.0 0.000    0.0 /
   1    1  0.000000  0.000000  1.000000   400101   391231   0 1  0    0.0    0.0    0.0    0.0   1 1.000   0 0.000   0 0.000   0 0.000   0 0.000   0 0.000   0 0.000   0 0.000  0 0  0  0  0  90.000 
     12 "PELZER 0    " 138.00     304 "PIEDMONT 0  " 138.00  "1 "   1 " "  :  1  0.002310  0.021191  0.007510  320.3    0.0    0.0    0.0 0.000    0.0 /
   1    1  0.000000  0.000000  1.000000   400101   391231   0 1  0    0.0    0.0    0.0    0.0   1 1.000   0 0.000   0 0.000   0 0.000   0 0.000   0 0.000   0 0.000   0 0.000  0 0  0  0  0  90.000 
     12 "PELZER 0    " 138.00     441 "WILLIAMSTO~2" 138.00  "1 "   1 " "  :  1  0.001565  0.015025  0.004850  320.3    0.0    0.0    0.0 0.000    0.0 /
   1    1  0.000000  0.000000  1.000000   400101   391231   0 1  0    0.0    0.0    0.0    0.0   1 1.000   0 0.000   0 0.000   0 0.000   0 0.000   0 0.000   0 0.000   0 0.000  0 0  0  0  0  90.000 
     13 "PELZER 1    " 138.00      12 "PELZER 0    " 138.00  "1 "   1 " "  :  1  0.000623  0.003134  0.000000   65.5    0.0    0.0    0.0 0.000    0.0 /
   1    1  0.000000  0.000000  1.000000   400101   391231   0 1  0    0.0    0.0    0.0    0.0   1 1.000   0 0.000   0 0.000   0 0.000   0 0.000   0 0.000   0 0.000   0 0.000  0 0  0  0  0  90.000 
     15 "SENECA 3 1  " 138.00      91 "SENECA 2 0  " 138.00  "1 "   1 " "  :  1  0.004799  0.046085  0.014877  320.3    0.0    0.0    0.0 0.000    0.0 /
   1    1  0.000000  0.000000  1.000000   400101   391231   0 1  0    0.0    0.0    0.0    0.0   1 1.000   0 0.000   0 0.000   0 0.000   0 0.000   0 0.000   0 0.000   0 0.000  0 0  0  0  0  90.000 
     15 "SENECA 3 1  " 138.00     230 "WESTMINSTE~1" 138.00  "1 "   1 " "  :  1  0.010894  0.104607  0.033768  320.3    0.0    0.0    0.0 0.000    0.0 /
   1    1  0.000000  0.000000  1.000000   400101   391231   0 1  0    0.0    0.0    0.0    0.0   1 1.000   0 0.000   0 0.000   0 0.000   0 0.000   0 0.000   0 0.000   0 0.000  0 0  0  0  0  90.000 
...